PITZER
-MacInnes   false
-use_etheta true
-redox      false

SOLUTION_MASTER_SPECIES
H	H+	     -1.     H	       1.008
H(1)     H+	     -1.     0.0
E	e-	     0.0     0.0	     0.0
O        H2O            0.0     O               15.994
O(-2)    H2O            0.0     0.0
Ca       Ca+2	   0.0     Ca	      40.08
Mg       Mg+2	   0.0     Mg	      24.305
Na       Na+	    0.0     Na	      22.9898
K	K+	     0.0     K	       39.0983
Cl       Cl-            0.0     Cl              35.4527
C	CO3-2	  2.0     HCO3	    12.0111
C(4)     CO3-2	  2.0     HCO3	    12.0111
Alkalinity CO3-2	1.0     Ca0.5(CO3)0.5   50.05
S	SO4-2	  0.0     SO4	     32.064
S(6)     SO4-2	  0.0     SO4
N		NO3-	0	N		14.0067
N(+5)		NO3-	0	N
Pct		Pct-	 0	Pct		99.45 #Redox inactive perchlorate


SOLUTION_SPECIES
H+ = H+
	log_k	   0.000
e- = e-
	log_k	   0.000
H2O = H2O
	log_k	   0.000
Ca+2 = Ca+2
	log_k	   0.000
Mg+2 = Mg+2
	log_k	   0.000
Na+ = Na+
	log_k	   0.000
K+ = K+
	log_k	   0.000
Cl- = Cl-
	log_k	   0.000
Pct- = Pct-
	log_k	   0.000
CO3-2 = CO3-2
	log_k	   0.000
SO4-2 = SO4-2
	log_k	   0.000
NO3- = NO3-
	log_k	   0.000

#SOLUTION SPECIES

H2O = OH- + H+
	log_k	   -13.994784

CO3-2 + H+ = HCO3-
	log_k	   10.328849
	-analytic       1.032884862388E+01	-1.478150343252E-02	-2.226241360393E+03	1.797784698074E+00	4.733813663628E+05	2.362660261124E-05

CO3-2 + 2 H+ = CO2 + H2O
	log_k	   16.680714
	-analytic       1.668071412912E+01	-1.252270792891E-01	-1.363498667032E+04	2.126168126750E+01	1.838887950746E+06	1.099232662159E-04

Ca+2 + CO3-2 = CaCO3
	log_k	   3.1514597
	-analytic       3.151459719316E+00	3.038995548383E-01	-1.185011415827E+03	-2.920584045915E+01	1.124164752334E+06	-3.038643522313E-04

Mg+2 + CO3-2 = MgCO3
	log_k	   2.9280109
	-analytic	2.928010934376E+00	1.713490676356E-02	4.315122963428E+01	-1.961191876549E+00	3.228667495843E+04	-8.593091722736E-06


PHASES
H2O(g)
    H2O = H2O
    log_k     1.37575
    -analytical_expression 1.37575 -1.466170165082 -58950.63315673 189.5248556492 4063385.338409 0.001351878361245
CO2(g)
    CO2 = CO2
    log_k     -1.47367
    -analytical_expression -1.473678326533 -0.03396597887737 -3647.896025268 5.475688056156 569172.9500936 2.711078910118e-005
Ice(s)
    H2O = H2O
    log_k     0.101588
    -analytical_expression 0.1015767473896 0.004860384994879 -612.9781709892 0.174306138189 61297.91075799 -5.783297255768e-006
CaCl2:6H2O
    CaCl2:6H2O = Ca+2 + 2Cl- + 6H2O
    log_k     3.7919
    -analytical_expression 3.791940485842 4.736025097443 229484.5365061 -659.6870044881 -16642991.257 -0.004074244967318
MgCl2:6H2O
    MgCl2:6H2O = 2Cl- + 6H2O + Mg+2
    log_k     4.6274
    -analytical_expression 4.627411239419 -0.1066105691893 -967.4434445356 12.64167447533 -294020.5752762 7.939139912554e-005
MgCl2:8H2O
    MgCl2:8H2O = 2Cl- + 8H2O + Mg+2
    log_k     4.1671
    -analytical_expression 4.167133287227 -0.200422177598 2288.141723329 16.40714551238 -899083.4788102 0.0002429573956265
MgCl2:12H2O
    MgCl2:12H2O = 2Cl- + 12H2O + Mg+2
    log_k     4.6718
    -analytical_expression 4.671845915855 15.18073610831 794345.1687803 -2183.253378039 -59701665.41872 -0.01255951905237
NaCl
    NaCl = Cl- + Na+
    log_k     1.5765
    -analytical_expression 1.576509798433 0.4380504226599 27034.77617034 -66.52569291883 -2288125.929603 -0.0003479027475253
NaCl:2H2O
    NaCl:2H2O = Cl- + 2H2O + Na+
    log_k     1.5235
    -analytical_expression 1.523538374759 -0.6555515948329 -45813.54734953 108.2384962685 3681545.029078 0.0004484864418276
KCl
    KCl = Cl- + K+
    log_k     0.89808
    -analytical_expression 0.8980829492526 -0.1043430431799 -7010.269718209 17.70724851898 411995.9969743 6.943475793218e-005
CaSO4
    CaSO4 = Ca+2 + SO4-2
    log_k     -4.2603
    -analytical_expression -4.260270159204 -0.3902086852752 -15344.33141618 52.47827076285 819865.6050915 0.0003231781752287
CaSO4:2H2O
    CaSO4:2H2O = Ca+2 + 2H2O + SO4-2
    log_k     -4.5969
    delta_h   -0.109 kcal
    -analytical_expression -4.596894962771 -0.3917329065979 -16183.13335519 53.35959312594 861976.8549895 0.0003300771871511
MgSO4:H2O
    MgSO4:H2O = H2O + Mg+2 + SO4-2
    log_k     -0.204804
    -analytical_expression 56.7312 -0.366572 0 0 0 0.000588992
MgSO4:6H2O
    MgSO4:6H2O = 6H2O + Mg+2 + SO4-2
    log_k     -1.6264
    -analytical_expression -1.626434644486 0.003408248067927 -26.42328430167 -0.3707396073687 807.4465878622 -2.166812083429e-007
MgSO4:7H2O
    MgSO4:7H2O = 7H2O + Mg+2 + SO4-2
    log_k     -1.8813
    -analytical_expression -1.88126581108 -0.001740672723662 -964.9841016986 1.501806056758 -3348.583315167 8.674145820102e-007
MgSO4:11H2O
    MgSO4:11H2O = 11H2O + Mg+2 + SO4-2
    log_k     -1.31
    -analytical_expression -13.41743277402 0.04061361337971 0 0 0 0
Na2SO4
    Na2SO4 = 2Na+ + SO4-2
    log_k     -0.28801
    -analytical_expression -0.2880108611811 0.000964182697441 -7.293869168275 -0.104940409342 218.0366402123 -6.515616012792e-008
Na2SO4:10H2O
    Na2SO4:10H2O = 10H2O + 2Na+ + SO4-2
    log_k     -1.2165
    -analytical_expression -1.216459883843 0.08540649377228 -562.6821753846 -7.906042680433 17214.60986639 -4.733051214088e-005
K2SO4
    K2SO4 = 2K+ + SO4-2
    log_k     -1.7761
    -analytical_expression -1.776106387546 -0.002185243476205 -1231.187960601 1.913582574724 -4406.56176853 1.074280352745e-006
Calcite
    CaCO3 = CO3-2 + Ca+2
    log_k     -8.4799
    delta_h   -2.297 kcal
    -analytical_expression -8.479872330052 0.002047669885051 -2028.813937272 3.2735802755 149127.7368194 -4.031486833911e-005
Aragonite
    CaCO3 = CO3-2 + Ca+2
    log_k     -8.3361
    delta_h   -2.589 kcal
    -analytical_expression -8.336136755586 0.002166578576872 -1970.45031867 3.181799387522 149264.9800894 -4.037827087567e-005
Vaterite
    CaCO3 = CO3-2 + Ca+2
    log_k     -7.9135
    -analytical_expression -7.913451271565 0.002388878801586 -1818.892030984 2.949531477338 149980.4382902 -4.046748005398e-005
CaCO3:6H2O
    CaCO3:6H2O = CO3-2 + Ca+2 + 6H2O
    log_k     -6.5855
    -analytical_expression -6.585452402737 -0.003303885286877 -1810.187117363 2.819942370401 -6154.53404297 1.664010264513e-006
MgCO3
    MgCO3 = CO3-2 + Mg+2
    log_k     -8.0302
    delta_h   -6.169 kJ
    -analytical_expression -8.030160035589 0.002185656875825 1212.173864715 -1.886456800325 4218.319647584 -1.089449209792e-006
MgCO3:3H2O
    MgCO3:3H2O = CO3-2 + 3H2O + Mg+2
    log_k     -5.31373
    -analytical_expression -5.31373767753 -0.2186264051829 916.6963122544 12.83244804507 -28162.25767349 0.0003450492430857
MgCO3:5H2O
    MgCO3:5H2O = CO3-2 + 5H2O + Mg+2
    log_k     -5.0779
    -analytical_expression -5.077872392066 7.389830779427 257736.7166822 -925.1332603422 -13827022.46391 -0.007008358381174
3MgCO3:Mg(OH)2:3H2O
    (MgCO3)3:Mg(OH)2:3H2O = 3CO3-2 + 3H2O + 4Mg+2 + 2OH-
    log_k     -36.76954
    -analytical_expression -36.76954000057 0.008443108095679 4998.03229213 -7.737421547374 19037.83143653 -3.92888913333e-006
NaHCO3
    NaHCO3 = HCO3- + Na+
    log_k     -0.39822
    -analytical_expression -0.3982203683153 1.291449202971 42778.78336853 -158.4584793858 -2301392.589276 -0.001243520072353
Na2CO3:7H2O
    Na2CO3:7H2O = CO3-2 + 7H2O + 2Na+
    log_k     -0.43753
    -analytical_expression -0.4375318122385 0.02849750161147 -220.3577446807 -3.099640110372 6735.421383328 -1.837703890257e-006
Na2CO3:10H2O
    Na2CO3:10H2O = CO3-2 + 10H2O + 2Na+
    log_k     -0.80391
    -analytical_expression -0.8039097003288 -0.02388306352508 -76.09390057914 -1.096490355008 2269.804801163 0.0001132098850193
KHCO3
    KHCO3 = HCO3- + K+
    log_k     0.19061
    -analytical_expression 0.1906067002961 0.007100649409491 -90.9125631961 -1.256385799889 2829.401264911 1.422915976065e-005
NaNO3
    NaNO3 = NO3- + Na+
    log_k     1.0864
    -analytical_expression 1.086379357571 -2.257796548931 -95876.9020331 286.8242562231 7322008.612604 0.002279472229598
KNO3
    KNO3 = K+ + NO3-
    log_k     -0.10916
    -analytical_expression -0.1091608864365 0.1216808480013 -598.1877270196 -8.401735944885 18307.90385874 -0.0001539958902954
NaClO4:H2O
    NaPct:H2O = H2O + Na+ + Pct-
    -analytical_expression -11.1729411 0.076626172 0 0 0 -0.000106779984
NaClO4:2H2O
    NaPct:2H2O = 2H2O + Na+ + Pct-
    -analytical_expression -5.82249933 0.02739573 0 0 0 0
Mg(ClO4)2:6H2O
    Mg(Pct)2:6H2O = 6H2O + Mg+2 + 2Pct-
    -analytical_expression -13.5061749 0.124358248 0 0 0 -0.000202246597
Ca(ClO4)2:6H2O
    Ca(Pct)2:6H2O = Ca+2 + 6H2O + 2Pct-
    -analytical_expression -7.30158036 0.074709054 0 0 0 -9.46110529e-005
KClO4
    KPct = K+ + Pct-
    log_k     -1.97
    -analytical_expression -3.09444 -0.0264928 0 0 0 0.000101515
MgSO4:K2SO4:6H2O
    MgSO4:K2SO4:6H2O = 6H2O + 2K+ + Mg+2 + 2SO4-2
    log_k     -4.3779
    -analytical_expression -4.377949347709 0.2207940286849 -991.0656582027 -13.89208993791 30398.36883751 -0.0003203002563209
NaHCO3:Na2CO3:2H2O
    Na3H(CO3)2:2H2O = CO3-2 + 2H2O + HCO3- + 3Na+
    log_k     -1.0175
    -analytical_expression -1.017497541983 0.01283074345407 -95.92299693929 -1.397066236481 2828.311583421 -8.844862200511e-007
Na2SO4:3K2SO4
    Na2SO4:3K2SO4 = 6K+ + 2Na+ + 4SO4-2
    log_k     -7.18853
    -analytical_expression -7.188531700629 0.07579905695147 -597.4381481922 -8.239501294328 18613.36838031 -4.690515029406e-006
Na2SO4:MgSO4:4H2O
    Na2Mg(SO4)2:4H2O = 4H2O + Mg+2 + 2Na+ + 2SO4-2
    log_k     -2.3718
    -analytical_expression -2.371786620291 0.004104516719958 -31.16909594664 -0.4466815820557 935.3350880131 -2.750820525336e-007
CaCl2:2MgCl2:12H2O
    CaCl2:(MgCl2)2:12H2O = Ca+2 + 6Cl- + 12H2O + 2Mg+2
    log_k     16.934
    -analytical_expression 16.93423392071 -0.06884285942207 545.2465200169 7.48244075756 -17054.94326907 4.205177521326e-006
KMgCl3:6H2O
    KMgCl3:6H2O = 3Cl- + 6H2O + K+ + Mg+2
    log_k     4.2874
    -analytical_expression 4.287405454278 -0.0477294635478 -5833.020096229 13.44642015071 201600.2666815 -1.963792423349e-005
Dolomite
    CaMg(CO3)2 = 2CO3-2 + Ca+2 + Mg+2
    log_k     -17.083
    delta_h   -9.436 kcal
    -analytical_expression -17.08273587886 0.00312908194568 1844.228133369 -2.856278912898 7158.843706313 -1.478335151755e-006
aCa(ClO4)2:4H2O
    Ca(Pct)2:4H2O = Ca+2 + 4H2O + 2Pct-
    -analytical_expression 90.7201495 -0.672459482 0 0 0 0.00134570488
bCa(ClO4)2:4H2O
    Ca(Pct)2:4H2O = Ca+2 + 4H2O + 2Pct-
    -analytical_expression 28.5161238 -0.160712797 0 0 0 0.000304136426

PITZER
-MacInnes   false
-use_etheta true
-redox      false
-B0
  Ca+2         Cl-           0.3040614   1333.9715   12.360818   -0.036687968   1.6997569e-005   -5529.586
  Ca+2         Pct-          0.45113   0         0         9.8835811e-005   5.0103e-007
  Ca+2         HCO3-         0.18254487   -576520.58   -5661.1241   18.447306   -0.0099890005   1.9505945
  Ca+2         NO3-          0.21082958   0.001431586   8.3989005e-006   -0.00052952184   1.0625823e-011   -0.045636644
  Ca+2         SO4-2         0.11538406   283.44702   3.4006177   -0.013417398   1.7942377e-005   -11119.797
  K+           Cl-           0.048341743   -759.79945   -4.7049961   0.010051906   -3.7446082e-006   104.47939
  K+           Pct-          -0.16     0         0         0.0005517
  K+           CO3-2         0.12880016   0.062227884   0.00036288232   0.0010990613   4.5435366e-010   -1.9951931
  K+           HCO3-         -0.010702331   0.0017358259   7.8052411e-006   0.00099997186   1.164802e-011   -0.08780736
  K+           NO3-          -0.07637531   0.0013152352   7.7190644e-006   0.00073257992   9.7722404e-012   -0.041911749
  K+           SO4-2         0.0037950214   33.408118   0.26850364   0.0014762899   1.0613597e-006   -879.98656
  Mg+2         Cl-           0.35149998   1993.2519   -3.3182295   0.032176969   -2.2793113e-005   -192030.8
  Mg+2         Pct-          0.49613   0         0         0.00210904855   -2.7085e-006
  Mg+2         HCO3-         -0.0093125652   -273406.2   -2607.1154   8.2508405   -0.0043400003   1.0517023
  Mg+2         NO3-          0.36707821   0.029112552   0.00017258355   -0.00051570365   2.2305841e-010   -0.9186355
  Mg+2         SO4-2         0.1265458   793.38518   8.0214141   -0.036554173   3.0810149e-005   -25962.131
  Na+          Cl-           0.076273304   -1067.7688   -5.2850453   0.0090310653   -2.5394713e-006   14568.462
  Na+          Pct-          0.0554    0         0         0.00309641101   -3.8727e-006
  Na+          CO3-2         0.036204809   1108.3789   11.19857   -0.023301689   1.4225931e-011   -0.1013989
  Na+          HCO3-         0.028002055   682.871   6.8994999   -0.014459104   -1.01395e-010   0.48617733
  Na+          NO3-          0.0037985859   -0.067131936   -0.00039800674   -0.0055987659   1.0849486e-005   2.11767
  Na+          SO4-2         0.026208138   -328359.37   -2148.4625   6.1832865   -0.0033000981   9290728.4
-B1
  Ca+2         Cl-           1.7081322   -0.037753229   -0.00022334683   -0.015416414   3.1790713e-005   1.1938224
  Ca+2         Pct-          1.7565    0         0         0.081533557   -0.00012439
  Ca+2         HCO3-         0.30003886   26492.237   183.13154   -0.37258761   8.9690965e-005   0.083693863
  Ca+2         NO3-          1.4092469   -0.026812299   -0.00015720819   -0.0091870914   -1.9866393e-010   0.85527285
  Ca+2         SO4-2         3.5604455   -8683.2821   -50.254213   0.20876094   -0.00019067624   168389.91
  K+           Cl-           0.21039963   -6557.8992   -123.06095   0.41991309   -0.00021763501   -671456.06
  K+           Pct-          0.15      0         0         0.01333
  K+           CO3-2         1.4329959   0.010370717   5.7949848e-005   0.0043598385   8.3863867e-011   -0.27088436
  K+           HCO3-         0.047800239   0.061647254   0.00036803551   0.0010990334   4.7311265e-010   -1.9055818
  K+           NO3-          0.03207435   -0.010436746   -6.1204087e-005   0.021149159   -7.7359685e-011   0.33284419
  K+           SO4-2         1.0524166   1111.5934   8.4360645   -0.037097592   3.2574249e-005   -27687.38
  Mg+2         Cl-           1.8206786   -339128.95   -342.36692   -2.3339513   0.0022538355   22028257
  Mg+2         Pct-          2.0085    0         0         0.257324026   -0.00042302
  Mg+2         HCO3-         0.80474138   3203209.7   29927.151   -92.777935   0.0477642   1.1883761
  Mg+2         NO3-          1.5847611   0.012878667   7.5564987e-005   -0.0044926966   9.5616389e-011   -0.41050287
  Mg+2         SO4-2         3.4915158   4424.966   45.240283   -0.16904741   0.00017606006   -146640.09
  Na+          Cl-           0.28041628   -4793.4459   -71.354327   0.2323138   -0.0001165964   -312691.3
  Na+          Pct-          0.2755    0         0         0.077961553   -0.00012331
  Na+          CO3-2         1.5120691   4412.4805   44.581886   -0.099890729   -2.3470887e-010   1.0021144
  Na+          HCO3-         0.044005226   1129.2842   11.410242   -0.024465729   -7.8642012e-010   3.3354784
  Na+          NO3-          0.1835089   -0.033130152   -0.00019133509   -0.61612591   0.0011333998   1.0719599
-B2
  Ca+2         SO4-2         -61.6855   28706.062   177.38608   -0.70956991   0.00045716371   -584876.19
  Mg+2         SO4-2         -6.2438444   317075.43   1709.8007   -7.9762285   0.0079756572   -5801437.4
-C0
  Ca+2         Cl-           -0.0019856275   377.55573   0.86877882   0.00041398219   -1.1977932e-006   -20305.007
  Ca+2         Pct-          -0.005001   0         0         0.000190715517   -5.9959e-007
  Ca+2         NO3-          -0.02014
  Ca+2         SO4-2         0.039750936   102.96134   0.78405636   -0.0032627873   3.9249386e-006   -2598.7657
  K+           Cl-           -0.00083921122   91.498664   0.58617817   -0.0012943362   4.9291282e-007   -18.46302
  K+           CO3-2         0.0005 
  K+           NO3-          0.0055543427   0.028860107   0.0001711146   -0.00020549986   2.2123063e-010   -0.91052242
  K+           SO4-2         0.014845244   13.401117   0.16790414   -0.00059688492   6.3751081e-007   -537.31196
  Mg+2         Cl-           0.0065068908   -0.053694349   -0.00031611469   -0.00024912429   2.4142875e-007   1.7050226
  Mg+2         Pct-          0.009581   0         0         -0.000220427294   -2.1062e-007
  Mg+2         NO3-          -0.02062
  Mg+2         SO4-2         0.052909748   -28.692789   -0.57562274   0.001565112   -2.1174952e-006   1821.394
  Na+          Cl-           0.0012710958   77.695148   0.23033075   -8.1590004e-005   -1.1997459e-007   -2017.7122
  Na+          Pct-          -0.00118   0         0         -0.000288974241   3.9507e-007
  Na+          CO3-2         0.0052 
  Na+          SO4-2         0.0027850405   141660.03   926.62783   -2.6650756   0.0014224318   -4008742
-PSI
  Ca+2         Mg+2         Cl-           -0.02381009   -981.57413   -7.4057023   0.013036437   6.309531e-010   -2.6839055
  Ca+2         Mg+2         Pct-          -0.02287   0         0         -0.0022433367   1.909e-006
  Ca+2         Mg+2         SO4-2         0.024  
  Cl-          Pct-         Ca+2          -0.003913
  Cl-          Pct-         K+            -0.0523
  Cl-          Pct-         Mg+2          -0.0007618
  Cl-          Pct-         Na+           -0.005469   0         0         0.00032352
  Cl-          CO3-2        K+            0.004  
  Cl-          CO3-2        Na+           0.0086555639   -11.578727   -0.11401251   0.00044733586   -4.6816399e-007   370.67216
  Cl-          HCO3-        Mg+2          -0.096 
  Cl-          HCO3-        Na+           -0.012777036   -11.975486   -0.14023339   0.00051084177   -5.9489945e-007   454.38568
  Cl-          NO3-         Ca+2          -0.0409
  Cl-          NO3-         K+            -0.0066757814   -0.033160346   -0.00019332891   0.0069584303   -1.1425551e-005   1.0628441
  Cl-          NO3-         Mg+2          0.0046 
  Cl-          NO3-         Na+           -0.006900027   -0.0012233931   -7.1775174e-006   0.0039408587   -6.8000091e-006   0.038998555
  Cl-          SO4-2        Ca+2          -0.054443912   -53.713364   -0.65685416   0.0024433042   -2.7831215e-006   2121.8056
  Cl-          SO4-2        K+            -0.0038287397   -16.171644   -0.17015492   0.00046920669   -6.5521236e-007   546.38503
  Cl-          SO4-2        Mg+2          -0.018329691   -19.953807   0.037100714   -0.0002178776   1.7212157e-007   -106.2545
  Cl-          SO4-2        Na+           -0.0014505098   18.889786   0.15236941   -0.00066461283   5.7800875e-007   -504.90248
  CO3-2        Pct-         K+            -0.006 
  CO3-2        Pct-         Na+           -0.006 
  CO3-2        NO3-         K+            0.0075 
  CO3-2        NO3-         Na+           0.0132 
  HCO3-        Pct-         Ca+2          -0.36  
  HCO3-        Pct-         K+            -0.019 
  HCO3-        Pct-         Mg+2          -0.36  
  HCO3-        Pct-         Na+           -0.019 
  HCO3-        CO3-2        K+            0.012  
  HCO3-        CO3-2        Na+           0.002  
  HCO3-        NO3-         Na+           0.0061 
  K+           Ca+2         Cl-           -0.028561045   -13.376062   0.00036824953   0.00025332457   4.6372517e-010   -2.0122916
  K+           Ca+2         Pct-          -0.0107
  K+           Ca+2         NO3-          -0.023274572   0.0095314979   6.2175393e-005   0.0029440765   9.5204215e-011   -0.27116013
  K+           Mg+2         Cl-           -0.049482782   -29.034028   -0.0002587585   -8.0635843e-006   -3.408622e-010   1.3424456
  K+           Mg+2         Pct-          -0.0107
  K+           Mg+2         NO3-          -0.0531   0.0012875962   7.5611092e-006   0.0019999803   9.5824865e-012   -0.041007159
  K+           Mg+2         SO4-2         -0.12436201   -27.394864   -0.48471253   0.0018094592   -2.1352926e-006   1552.0971
  Na+          Ca+2         Cl-           -0.003297315   -0.069004767   1.8470943   -0.012988943   1.1059485e-005   2.1943926
  Na+          Ca+2         Pct-          -0.01178   0         0         -0.0081855256   1.5312e-005
  Na+          Ca+2         NO3-          0.0035190432   0.052296298   0.00031036141   0.0001277544   4.0244399e-010   -1.6490249
  Na+          Ca+2         SO4-2         -0.073414828   -10260.822   -70.735835   0.28443431   -0.00026677856   234004.82
  Na+          K+           Cl-           -0.0025390318   -204.43544   -1.0949488   0.0014692292   -5.6974215e-010   2.6471162
  Na+          K+           Pct-          0.0116 
  Na+          K+           CO3-2         0.003  
  Na+          K+           HCO3-         -0.0079
  Na+          K+           NO3-          -0.0012
  Na+          K+           SO4-2         0.0039677104   -1627.3373   -10.533862   0.043237507   -4.0686028e-005   34981.79
  Na+          Mg+2         Cl-           -0.0081719758   2.0403061   0.00027258907   5.3752315e-005   3.484581e-010   -1.4695667
#  Na+          Mg+2         Pct-          -0.0239371   0         0         -0.0083403623   1.5821e-005
  Na+          Mg+2         NO3-          -0.0099
  Na+          Mg+2         SO4-2         -0.0099106892   -45.804614   -0.21073595   0.0013947709   -1.386759e-006   729.48481
  SO4-2        Pct-         K+            -0.01411
  SO4-2        Pct-         Na+           -0.01411
  SO4-2        Pct-         Ca+2          -0.8138
  SO4-2        Pct-         Mg+2          -0.07493
  SO4-2        CO3-2        K+            -0.009 
  SO4-2        CO3-2        Na+           0.0045007319   21.836188   0.31666702   -0.0011846431   1.3532638e-006   -1022.3625
  SO4-2        HCO3-        Mg+2          -0.161 
  SO4-2        HCO3-        Na+           -0.005 
  SO4-2        NO3-         Ca+2          -0.2281
  SO4-2        NO3-         K+            -0.019366423   -0.0010771891   -4.9596047e-006   0.031567129   -5.3042243e-005   0.041889667
  SO4-2        NO3-         Mg+2          -0.007696   0.00065605663   3.8502367e-006   0.00095998998   4.8740511e-012   -0.020906913
  SO4-2        NO3-         Na+           -0.0037000277   -0.028697641   -0.00017016061   0.0010317474   -1.00022e-006   0.90534787
-THETA
  Ca+2         Mg+2          0.12436741   -982.99146   0.00071482789   -0.0063442758   8.9638412e-010   -3.9188228
  Cl-          Pct-          0.03099   0         0         -0.0019343
  Cl-          CO3-2         -0.02  
  Cl-          HCO3-         0.03   
  Cl-          NO3-          0.016  
  Cl-          SO4-2         0.0459732   -51.601357   -0.39589759   0.0015454327   -1.5049914e-006   1290.7705
  CO3-2        Pct-          0.071  
  HCO3-        Pct-          0.081  
  HCO3-        CO3-2         -0.04  
  K+           Ca+2          0.056415557   -284.92805   6.6643963e-005   -0.0045401643   7.5442868e-011   -0.39934321
  K+           Mg+2          0.1167 
  Na+          Ca+2          0.048535375   59.259743   0.48424242   -0.0019032262   1.8339565e-006   -1576.2465
  Na+          K+            -0.0094802007   612.39474   3.0298316   -0.0036900788   -1.4812647e-010   0.65027176
  Na+          Mg+2          0.07   
  SO4-2        Pct-          0.071  
  SO4-2        CO3-2         0.02   
  SO4-2        HCO3-         0.01   
  SO4-2        NO3-          0.12373252   0.0042580962   2.0750148e-005   -0.016790713   2.8920465e-005   -0.15771835
-LAMDA
  Pct-         CO2           0.020480415   -33159.598   -315.82776   0.99643228   -0.00052121984   -0.60314597
  NO3-         CO2           0.020480415   -33159.598   -315.82776   0.99643228   -0.00052121984   -0.60314597
  Ca+2         CO2           0.16437902   245541.54   2452.5097   -8.101555   0.00442472   0.16708249
  Cl-          CO2           0.020480415   -33159.598   -315.82776   0.99643228   -0.00052121984   -0.60314597
  K+           CO2           0.044942248   -55954.232   -546.07469   1.7670085   -0.00094870028   1.2687171
  Mg+2         CO2           0.14473252   3589.5041   104.34546   -0.5418435   0.00038812025   -0.9166599
  Na+          CO2           0.081474353   109399.3   1047.0213   -3.3265654   0.0017531997   1.2758008
  SO4-2        CO2           0.13897305   -33927.738   -457.01559   1.8270944   -0.0011427198   -0.7747541
-ZETA
  Ca+2         Cl-          CO2           -0.014130972   5256.7999   27.377186   -0.018001293   -2.473525e-005   1.3838983
  Ca+2         Pct-         CO2           -0.014130972   5256.7999   27.377186   -0.018001293   -2.473525e-005   1.3838983
  Ca+2         NO3-         CO2           -0.014130972   5256.7999   27.377186   -0.018001293   -2.473525e-005   1.3838983
  K+           Cl-          CO2           -0.012069742   6853.3116   73.800049   -0.25789172   0.00014733335   -1.519026
  K+           Pct-         CO2           -0.012069742   6853.3116   73.800049   -0.25789172   0.00014733335   -1.519026
  K+           NO3-         CO2           -0.012069742   6853.3116   73.800049   -0.25789172   0.00014733335   -1.519026
  K+           SO4-2        CO2           -0.00035756674   30756.951   611.37608   -2.8607642   0.0019510866   -2.7061386
  Mg+2         Cl-          CO2           -0.0098469511   27726.757   253.6229   -0.77228525   0.00039160264   1.7222084
  Mg+2         Pct-         CO2           -0.0098469511   27726.757   253.6229   -0.77228525   0.00039160264   1.7222084
  Mg+2         NO3-         CO2           -0.0098469511   27726.757   253.6229   -0.77228525   0.00039160264   1.7222084
  Mg+2         SO4-2        CO2           -0.041586353   143162.58   1412.3027   -4.6083306   0.0024892068   0.91538201
  Na+          Cl-          CO2           -0.00057153033   6879.055   73.745256   -0.25800536   0.00014782317   -0.77804861
  Na+          Pct-         CO2           -0.00057153033   6879.055   73.745256   -0.25800536   0.00014782317   -0.77804861
  Na+          NO3-         CO2           -0.00057153033   6879.055   73.745256   -0.25800536   0.00014782317   -0.77804861
  Na+          SO4-2        CO2           -0.037453504   -1399082.3   -12630.274   37.930519   -0.0189473   -1.1952555
-APHI
			3.9169034679E-01	-9.8132683543E+02	-1.1243833122E+01	4.1040409383E-02	-2.3038649734E-05	0.0000000000E+00



								

EXCHANGE_MASTER_SPECIES
	X       X-
EXCHANGE_SPECIES
#    Temperature dependence is based on the van't Hoff equation

	X- = X-
	log_k	   0.0

	Na+ + X- = NaX
	log_k   0.0

	K+ + X- = KX
	log_k   0.7
	delta_h  -4.3   # Jardine & Sparks, 1984

	Ca+2 + 2X- = CaX2
	log_k   0.8
	delta_h  7.2    # Van Bladel & Gheyl, 1980

	Mg+2 + 2X- = MgX2
	log_k   0.6
	delta_h  7.4    # Laudelout et al., 1968

SURFACE_MASTER_SPECIES
	Hfo_s  Hfo_sOH
	Hfo_w  Hfo_wOH
SURFACE_SPECIES
#   All surface data from
#   Dzombak and Morel, 1990
#
#
#   Acid-base data from table 5.7
#
#   strong binding site--Hfo_s,

	Hfo_sOH = Hfo_sOH
	log_k  0.0

	Hfo_sOH  + H+ = Hfo_sOH2+
	log_k  7.29    # = pKa1,int

	Hfo_sOH = Hfo_sO- + H+
	log_k  -8.93   # = -pKa2,int

#   weak binding site--Hfo_w

	Hfo_wOH = Hfo_wOH
	log_k  0.0

	Hfo_wOH  + H+ = Hfo_wOH2+
	log_k  7.29    # = pKa1,int

	Hfo_wOH = Hfo_wO- + H+
	log_k  -8.93   # = -pKa2,int

###############################################
#	     CATIONS			 #
###############################################
#
#   Cations from table 10.1 or 10.5
#
#   Calcium
	Hfo_sOH + Ca+2 = Hfo_sOHCa+2
	log_k  4.97

	Hfo_wOH + Ca+2 = Hfo_wOCa+ + H+
	log_k -5.85
#
#   Derived constants table 10.5
#
#   Magnesium
	Hfo_wOH + Mg+2 = Hfo_wOMg+ + H+
	log_k -4.6

###############################################
#	     ANIONS			  #
###############################################
#
#   Anions from table 10.6
#
#
#   Anions from table 10.7
#

#
#   Anions from table 10.8
#
#   Sulfate
	Hfo_wOH + SO4-2 + H+ = Hfo_wSO4- + H2O
	log_k   7.78

	Hfo_wOH + SO4-2 = Hfo_wOHSO4-2
	log_k   0.79
#
# Carbonate: Van Geen et al., 1994 reoptimized for HFO
# 0.15 g HFO/L has 0.344 mM sites == 2 g of Van Geen's Goethite/L
#
#	Hfo_wOH + CO3-2 + H+ = Hfo_wCO3- + H2O
#	log_k   12.56
#
#	Hfo_wOH + CO3-2 + 2H+= Hfo_wHCO3 + H2O
#	log_k   20.62


END
MEAN GAM
CaCl2
CaSO4
CaCO3
Ca(OH)2
MgCl2
MgSO4
MgCO3
Mg(OH)2
NaCl
Na2SO4
NaHCO3
Na2CO3
NaOH
KCl
K2SO4
KHCO3
K2CO3
KOH
HCl
H2SO4

END
